# Copy this file to .dev.vars and fill in your values
# This file is for local development only and should NOT be committed

MODFLOW_AI_MCP_00_CONNECTION_STRING=your_neon_connection_string_here
OPENAI_API_KEY=your_openai_api_key_here
# Optional: Add this to require API key authentication
# MCP_API_KEY=your_secret_api_key_here